Version 4
SHEET 1 880 680
WIRE 304 32 144 32
WIRE 304 48 304 32
WIRE 512 48 400 48
WIRE 608 96 464 96
WIRE -32 112 -208 112
WIRE 144 112 144 96
WIRE 144 112 48 112
WIRE 208 112 144 112
WIRE 256 112 208 112
WIRE 512 112 512 48
WIRE -208 128 -208 112
WIRE 208 128 208 112
WIRE 464 128 464 96
WIRE 480 128 464 128
WIRE 144 144 144 112
WIRE 608 144 608 96
WIRE 256 160 256 112
WIRE 480 160 256 160
WIRE 608 192 608 144
WIRE 144 208 -208 208
WIRE 208 208 208 192
WIRE 208 208 144 208
WIRE 304 208 304 128
WIRE 304 208 208 208
WIRE 400 208 400 128
WIRE 400 208 304 208
WIRE 144 240 144 208
WIRE 400 256 400 208
WIRE 608 304 608 272
WIRE 512 336 512 176
WIRE 512 336 400 336
FLAG 144 240 0
FLAG 608 304 0
SYMBOL res 64 96 R90
WINDOW 0 0 56 VBottom 2
WINDOW 3 32 56 VTop 2
SYMATTR InstName R1
SYMATTR Value 10k
SYMBOL schottky 160 96 R180
WINDOW 0 24 64 Left 2
WINDOW 3 24 0 Left 2
SYMATTR InstName D1
SYMATTR Value 1N5817
SYMATTR Description Diode
SYMATTR Type diode
SYMBOL zener 160 208 R180
WINDOW 0 24 64 Left 2
WINDOW 3 24 0 Left 2
SYMATTR InstName D2
SYMATTR Value 1N750
SYMATTR Description Diode
SYMATTR Type diode
SYMBOL voltage 304 32 R0
WINDOW 123 0 0 Left 0
SYMATTR InstName V1_5V
SYMATTR Value 5
SYMATTR SpiceLine Rser=1
SYMBOL voltage -208 112 R0
WINDOW 3 491 96 Invisible 2
WINDOW 123 0 0 Left 0
WINDOW 39 0 0 Left 0
SYMATTR Value PULSE(0 5 0 0.0001 0.0001 0.05 0.1)
SYMATTR InstName Vin_5-10V
SYMBOL cap 192 128 R0
SYMATTR InstName C1
SYMATTR Value 100p
SYMBOL OpAmps\\TL072 512 80 R0
SYMATTR InstName U1
SYMBOL voltage 400 32 R0
WINDOW 123 0 0 Left 0
WINDOW 39 0 0 Left 0
SYMATTR InstName Euro12V
SYMATTR Value 12
SYMBOL voltage 400 240 R0
WINDOW 123 0 0 Left 0
WINDOW 39 0 0 Left 0
SYMATTR InstName Euro-12V
SYMATTR Value 12
SYMBOL LED 544 160 R270
WINDOW 0 32 32 VTop 2
WINDOW 3 0 32 VBottom 2
SYMATTR InstName D3
SYMATTR Value NSCW100
SYMATTR Description Diode
SYMATTR Type diode
SYMBOL res 592 176 R0
SYMATTR InstName R2
SYMATTR Value 470
TEXT -160 264 Left 2 !.tran 1
